Metadata-Version: 2.4
Name: mf6Voronoi
Version: 0.0.37
Summary: Voronoi mesh generator for MODFLOW6 Disv models
Author-email: Saul Montoya <saulmontoya@hatarilabs.com>
License-Expression: MIT
Keywords: MODFLOW,groundwater,hydrogeology
Requires-Python: >=3.9
Description-Content-Type: text/markdown
License-File: LICENSE
Requires-Dist: fiona>=1.9.6
Requires-Dist: geopandas>=1.0.0
Requires-Dist: numpy<2.2.5,>=1.26.4
Requires-Dist: pandas>=2.2.2
Requires-Dist: scipy<1.15.2,>=1.13.0
Requires-Dist: shapely>=1.8.2
Requires-Dist: rasterio>=1.3.8
Requires-Dist: pyvista>=0.44.2
Requires-Dist: flopy>=3.9.2
Requires-Dist: tqdm>=4.67.1
Requires-Dist: paramiko>=3.5.1
Requires-Dist: scikit-image>=0.25.2
Dynamic: license-file

mf6Voronoi
==========================
_The friendly way to create awesome Voronoi meshes for MODFLOW6 DISV_

<img src="https://raw.githubusercontent.com/hatarilabs/mf6Voronoi/refs/heads/main/examples/figures/voronoiMeshinModflow6Disv.png" alt="flopy3" style="width:50;height:20">


## Introduction
Groundwater modeling with several boundary conditions and complex hydrogeological setups require advanced tools for mesh discretizacion that ensures adequate refinement in the zone of interest while preserving a minimal cell account. Type of mesh has to be engineered in a way to preserve computational resources and represent adequately the groundwater flow regime. 

## Package
This python package creates a Voronoi mesh for MODFLOW6 with the DISV (discretized by vertices) option. The package work with geospatial files and has options for selective refinement based on the boundary condition.

These are the main python package characteristics:
- Works with geospatial files on ESRI Shapefile format
- Progressive refinement can be modified with a multiplier
- Summary of the point cloud generated for the Voronoi meshing
- Tested on more than 5 groundwater model datasets
- Output as polygon ESRI Shapefile
- Few steps and arguments for mesh generation

## Requirements
There are few requirements for the package. The most important one is that all the input files has to be in the same system of reference (CRS) and the CRS length unit has to be in meters or feet.

## Example

The package has been designed with a simple and user friendly approach allowing to create awesome meshes on a short amount of steps.


```
# Import the mf6Voronoi package
from mf6Voronoi.geoVoronoi import createVoronoi

# Create mesh object specifying the coarse mesh and the multiplier
vorMesh = createVoronoi(meshName='regionalModel',maxRef = 200, multiplier=1.5)

# Open limit layers and refinement definition layers
vorMesh.addLimit('basin','../../examples/regionalModel/shp/Angascancha_Basin_Extension.shp')
vorMesh.addLayer('river','../../examples/regionalModel/shp/rios.shp',50)

# Generate point pair array
vorMesh.generateOrgDistVertices()

# Generate the point cloud and voronoi
vorMesh.createPointCloud()
vorMesh.generateVoronoi()

# Export generated voronoi mesh
vorMesh.getVoronoiAsShp(outputPath='output')
```
